/*--------------------------------*- C++ -*----------------------------------*\
  =========                 |
  \\      /  F ield         | OpenFOAM: The Open Source CFD Toolbox
   \\    /   O peration     | Website:  https://openfoam.org
    \\  /    A nd           | Version:  9
     \\/     M anipulation  |
\*---------------------------------------------------------------------------*/
FoamFile
{
    format      ascii;
    class       dictionary;
    object      blockMeshDict;
}
// * * * * * * * * * * * * * * * * * * * * * * * * * * * * * * * * * * * * * //

convertToMeters 1;

vertices
(
    (0 0 0)
    (0.75 0 0)
    (0.75 0.75 0)
    (0 0.75 0)
    (0 0 1.5)
    (0.75 0 1.5)
    (0.75 0.75 1.5)
    (0 0.75 1.5)
);

blocks
(
    hex (0 1 2 3 4 5 6 7) (100 100 200) simpleGrading (0.75 0.75 1.5)
);


edges
(
);

boundary
(
    hot
    {
        type wall;
        faces
        (
            (0 4 7 3)
        );
    }
    cold
    {
        type wall;
        faces
        (
            (2 6 5 1)
        );
    }
    topAndBottom
    {
        type wall;
        faces
        (
            (1 5 4 0)
            (3 7 6 2)
        );
    }
    frontAndBack
    {
        type wall;
        faces
        (
            (0 3 2 1)
            (4 5 6 7)
        );
    }
);

mergePatchPairs
(
);

// ************************************************************************* //
